/*--------------------------------*- C++ -*----------------------------------*\
| =========                 |                                                 |
| \\      /  F ield         | OpenFOAM: The Open Source CFD Toolbox           |
|  \\    /   O peration     | Version:  3.10                                 |
|   \\  /    A nd           | Web:      www.OpenFOAM.org                      |
|    \\/     M anipulation  |                                                 |
\*---------------------------------------------------------------------------*/
FoamFile
{
    version     2.0;
    format      ascii;
    class       dictionary;
    object      blockMeshDict;
}
// * * * * * * * * * * * * * * * * * * * * * * * * * * * * * * * * * * * * * //

convertToMeters 1e-6;

vertices
(
    (-128.0 -128.0 0.0)  //0 (x, y, z)
    (128.0 -128.0 0.0)   //1
    (128.0 128.0 0.0)    //2
    (-128.0 128.0 0.0)   //3
    (-128.0 -128.0 256.0)   //4
    (128.0 -128.0 256.0)    //5
    (128.0 128.0 256.0)     //6
    (-128.0 128.0 256.0)    //7
);
blocks
(
    hex (0 1 2 3 4 5 6 7) (200 200 200) simpleGrading (1 1 1)		//REGION 1
);

edges
(
);

boundary
(
    atmosphere
    {
        type patch;
        faces
        (
            (3 7 6 2)
            (1 5 4 0)
            (1 2 6 5)
            (0 4 7 3)
            (0 3 2 1)
            (5 6 7 4)
        );
    }
);

mergePatchPairs
(
);
