/*--------------------------------*- C++ -*----------------------------------*\
  =========                 |
  \\      /  F ield         | OpenFOAM: The Open Source CFD Toolbox
   \\    /   O peration     | Website:  https://openfoam.org
    \\  /    A nd           | Version:  10
     \\/     M anipulation  |
\*---------------------------------------------------------------------------*/
FoamFile
{
    format      ascii;
    class       dictionary;
    location    "constant";
    object      phaseProperties;
}
// * * * * * * * * * * * * * * * * * * * * * * * * * * * * * * * * * * * * * //
phases          (metal gas);

sigma      1.3496;      // Copper surface-tension [N/m] or [J/m^2]
dsigmadT	-0.5e-4;      // unspecified

p0	          100000.0;
Tvap          2835;     // Copper boiling temperature [K] 
Mm            5.58e-2;  // unspecified
LatentHeatVap 7.45e6;   // unspecified
// ************************************************************************* //
